data/Master_nando_neutral/Customers.txt
new load.hv_f0_lv28_f0_c0 phases=1 bus1=hv_f0_lv28_f0_c0.1.4 conn=w kv=0.23 kw=1 kvar=1 model=1 status=variable daily=Load_shape_138 vminpu=0.5 vmaxpu=1.5
new load.hv_f0_lv28_f0_c1 phases=1 bus1=hv_f0_lv28_f0_c1.2.4 conn=w kv=0.23 kw=1 kvar=1 model=1 status=variable daily=Load_shape_242 vminpu=0.5 vmaxpu=1.5
new load.hv_f0_lv28_f0_c2 phases=1 bus1=hv_f0_lv28_f0_c2.3.4 conn=w kv=0.23 kw=1 kvar=1 model=1 status=variable daily=Load_shape_313 vminpu=0.5 vmaxpu=1.5
new load.hv_f0_lv28_f0_c3 phases=1 bus1=hv_f0_lv28_f0_c3.1.4 conn=w kv=0.23 kw=1 kvar=1 model=1 status=variable daily=Load_shape_125 vminpu=0.5 vmaxpu=1.5
new load.hv_f0_lv28_f0_c4 phases=1 bus1=hv_f0_lv28_f0_c4.2.4 conn=w kv=0.23 kw=1 kvar=1 model=1 status=variable daily=Load_shape_206 vminpu=0.5 vmaxpu=1.5
new load.hv_f0_lv28_f0_c5 phases=1 bus1=hv_f0_lv28_f0_c5.3.4 conn=w kv=0.23 kw=1 kvar=1 model=1 status=variable daily=Load_shape_338 vminpu=0.5 vmaxpu=1.5
new load.hv_f0_lv28_f0_c6 phases=1 bus1=hv_f0_lv28_f0_c6.1.4 conn=w kv=0.23 kw=1 kvar=1 model=1 status=variable daily=Load_shape_197 vminpu=0.5 vmaxpu=1.5
new load.hv_f0_lv28_f0_c7 phases=1 bus1=hv_f0_lv28_f0_c7.2.4 conn=w kv=0.23 kw=1 kvar=1 model=1 status=variable daily=Load_shape_186 vminpu=0.5 vmaxpu=1.5
new load.hv_f0_lv28_f0_c8 phases=1 bus1=hv_f0_lv28_f0_c8.3.4 conn=w kv=0.23 kw=1 kvar=1 model=1 status=variable daily=Load_shape_17 vminpu=0.5 vmaxpu=1.5
new load.hv_f0_lv28_f0_c9 phases=1 bus1=hv_f0_lv28_f0_c9.1.4 conn=w kv=0.23 kw=1 kvar=1 model=1 status=variable daily=Load_shape_197 vminpu=0.5 vmaxpu=1.5
new load.hv_f0_lv28_f0_c10 phases=1 bus1=hv_f0_lv28_f0_c10.2.4 conn=w kv=0.23 kw=1 kvar=1 model=1 status=variable daily=Load_shape_152 vminpu=0.5 vmaxpu=1.5
new load.hv_f0_lv28_f0_c11 phases=1 bus1=hv_f0_lv28_f0_c11.3.4 conn=w kv=0.23 kw=1 kvar=1 model=1 status=variable daily=Load_shape_131 vminpu=0.5 vmaxpu=1.5
new load.hv_f0_lv28_f0_c12 phases=1 bus1=hv_f0_lv28_f0_c12.1.4 conn=w kv=0.23 kw=1 kvar=1 model=1 status=variable daily=Load_shape_325 vminpu=0.5 vmaxpu=1.5
new load.hv_f0_lv28_f0_c13 phases=1 bus1=hv_f0_lv28_f0_c13.2.4 conn=w kv=0.23 kw=1 kvar=1 model=1 status=variable daily=Load_shape_164 vminpu=0.5 vmaxpu=1.5
new load.hv_f0_lv28_f0_c14 phases=1 bus1=hv_f0_lv28_f0_c14.3.4 conn=w kv=0.23 kw=1 kvar=1 model=1 status=variable daily=Load_shape_58 vminpu=0.5 vmaxpu=1.5
new load.hv_f0_lv28_f0_c15 phases=1 bus1=hv_f0_lv28_f0_c15.1.4 conn=w kv=0.23 kw=1 kvar=1 model=1 status=variable daily=Load_shape_177 vminpu=0.5 vmaxpu=1.5
new load.hv_f0_lv28_f0_c16 phases=1 bus1=hv_f0_lv28_f0_c16.2.4 conn=w kv=0.23 kw=1 kvar=1 model=1 status=variable daily=Load_shape_152 vminpu=0.5 vmaxpu=1.5
new load.hv_f0_lv28_f0_c17 phases=1 bus1=hv_f0_lv28_f0_c17.3.4 conn=w kv=0.23 kw=1 kvar=1 model=1 status=variable daily=Load_shape_161 vminpu=0.5 vmaxpu=1.5
new load.hv_f0_lv28_f0_c18 phases=1 bus1=hv_f0_lv28_f0_c18.1.4 conn=w kv=0.23 kw=1 kvar=1 model=1 status=variable daily=Load_shape_241 vminpu=0.5 vmaxpu=1.5
new load.hv_f0_lv28_f0_c19 phases=1 bus1=hv_f0_lv28_f0_c19.2.4 conn=w kv=0.23 kw=1 kvar=1 model=1 status=variable daily=Load_shape_135 vminpu=0.5 vmaxpu=1.5
new load.hv_f0_lv28_f0_c20 phases=1 bus1=hv_f0_lv28_f0_c20.3.4 conn=w kv=0.23 kw=1 kvar=1 model=1 status=variable daily=Load_shape_235 vminpu=0.5 vmaxpu=1.5
new load.hv_f0_lv28_f0_c21 phases=1 bus1=hv_f0_lv28_f0_c21.1.4 conn=w kv=0.23 kw=1 kvar=1 model=1 status=variable daily=Load_shape_46 vminpu=0.5 vmaxpu=1.5
new load.hv_f0_lv28_f0_c22 phases=1 bus1=hv_f0_lv28_f0_c22.2.4 conn=w kv=0.23 kw=1 kvar=1 model=1 status=variable daily=Load_shape_127 vminpu=0.5 vmaxpu=1.5
new load.hv_f0_lv28_f0_c23 phases=1 bus1=hv_f0_lv28_f0_c23.3.4 conn=w kv=0.23 kw=1 kvar=1 model=1 status=variable daily=Load_shape_337 vminpu=0.5 vmaxpu=1.5
new load.hv_f0_lv28_f0_c24 phases=1 bus1=hv_f0_lv28_f0_c24.1.4 conn=w kv=0.23 kw=1 kvar=1 model=1 status=variable daily=Load_shape_157 vminpu=0.5 vmaxpu=1.5
new load.hv_f0_lv28_f0_c25 phases=1 bus1=hv_f0_lv28_f0_c25.2.4 conn=w kv=0.23 kw=1 kvar=1 model=1 status=variable daily=Load_shape_12 vminpu=0.5 vmaxpu=1.5
new load.hv_f0_lv28_f0_c26 phases=1 bus1=hv_f0_lv28_f0_c26.3.4 conn=w kv=0.23 kw=1 kvar=1 model=1 status=variable daily=Load_shape_118 vminpu=0.5 vmaxpu=1.5
new load.hv_f0_lv28_f0_c27 phases=1 bus1=hv_f0_lv28_f0_c27.1.4 conn=w kv=0.23 kw=1 kvar=1 model=1 status=variable daily=Load_shape_302 vminpu=0.5 vmaxpu=1.5
new load.hv_f0_lv28_f0_c28 phases=1 bus1=hv_f0_lv28_f0_c28.2.4 conn=w kv=0.23 kw=1 kvar=1 model=1 status=variable daily=Load_shape_288 vminpu=0.5 vmaxpu=1.5
new load.hv_f0_lv28_f0_c29 phases=1 bus1=hv_f0_lv28_f0_c29.3.4 conn=w kv=0.23 kw=1 kvar=1 model=1 status=variable daily=Load_shape_290 vminpu=0.5 vmaxpu=1.5
new load.hv_f0_lv28_f0_c30 phases=1 bus1=hv_f0_lv28_f0_c30.1.4 conn=w kv=0.23 kw=1 kvar=1 model=1 status=variable daily=Load_shape_115 vminpu=0.5 vmaxpu=1.5
new load.hv_f0_lv28_f0_c31 phases=1 bus1=hv_f0_lv28_f0_c31.2.4 conn=w kv=0.23 kw=1 kvar=1 model=1 status=variable daily=Load_shape_87 vminpu=0.5 vmaxpu=1.5
new load.hv_f0_lv28_f0_c32 phases=1 bus1=hv_f0_lv28_f0_c32.3.4 conn=w kv=0.23 kw=1 kvar=1 model=1 status=variable daily=Load_shape_124 vminpu=0.5 vmaxpu=1.5
new load.hv_f0_lv28_f0_c33 phases=1 bus1=hv_f0_lv28_f0_c33.1.4 conn=w kv=0.23 kw=1 kvar=1 model=1 status=variable daily=Load_shape_174 vminpu=0.5 vmaxpu=1.5
new load.hv_f0_lv28_f0_c34 phases=1 bus1=hv_f0_lv28_f0_c34.2.4 conn=w kv=0.23 kw=1 kvar=1 model=1 status=variable daily=Load_shape_52 vminpu=0.5 vmaxpu=1.5
new load.hv_f0_lv28_f0_c35 phases=1 bus1=hv_f0_lv28_f0_c35.3.4 conn=w kv=0.23 kw=1 kvar=1 model=1 status=variable daily=Load_shape_110 vminpu=0.5 vmaxpu=1.5
new load.hv_f0_lv28_f0_c36 phases=1 bus1=hv_f0_lv28_f0_c36.1.4 conn=w kv=0.23 kw=1 kvar=1 model=1 status=variable daily=Load_shape_64 vminpu=0.5 vmaxpu=1.5
new load.hv_f0_lv28_f0_c37 phases=1 bus1=hv_f0_lv28_f0_c37.2.4 conn=w kv=0.23 kw=1 kvar=1 model=1 status=variable daily=Load_shape_332 vminpu=0.5 vmaxpu=1.5
new load.hv_f0_lv28_f0_c38 phases=1 bus1=hv_f0_lv28_f0_c38.3.4 conn=w kv=0.23 kw=1 kvar=1 model=1 status=variable daily=Load_shape_73 vminpu=0.5 vmaxpu=1.5
new load.hv_f0_lv28_f0_c39 phases=1 bus1=hv_f0_lv28_f0_c39.1.4 conn=w kv=0.23 kw=1 kvar=1 model=1 status=variable daily=Load_shape_146 vminpu=0.5 vmaxpu=1.5
new load.hv_f0_lv28_f1_c0 phases=1 bus1=hv_f0_lv28_f1_c0.1.4 conn=w kv=0.23 kw=1 kvar=1 model=1 status=variable daily=Load_shape_260 vminpu=0.5 vmaxpu=1.5
new load.hv_f0_lv28_f1_c1 phases=1 bus1=hv_f0_lv28_f1_c1.2.4 conn=w kv=0.23 kw=1 kvar=1 model=1 status=variable daily=Load_shape_263 vminpu=0.5 vmaxpu=1.5
new load.hv_f0_lv28_f1_c2 phases=1 bus1=hv_f0_lv28_f1_c2.3.4 conn=w kv=0.23 kw=1 kvar=1 model=1 status=variable daily=Load_shape_131 vminpu=0.5 vmaxpu=1.5
new load.hv_f0_lv28_f1_c3 phases=1 bus1=hv_f0_lv28_f1_c3.1.4 conn=w kv=0.23 kw=1 kvar=1 model=1 status=variable daily=Load_shape_48 vminpu=0.5 vmaxpu=1.5
new load.hv_f0_lv28_f1_c4 phases=1 bus1=hv_f0_lv28_f1_c4.2.4 conn=w kv=0.23 kw=1 kvar=1 model=1 status=variable daily=Load_shape_76 vminpu=0.5 vmaxpu=1.5
new load.hv_f0_lv28_f1_c5 phases=1 bus1=hv_f0_lv28_f1_c5.3.4 conn=w kv=0.23 kw=1 kvar=1 model=1 status=variable daily=Load_shape_293 vminpu=0.5 vmaxpu=1.5
new load.hv_f0_lv28_f1_c6 phases=1 bus1=hv_f0_lv28_f1_c6.1.4 conn=w kv=0.23 kw=1 kvar=1 model=1 status=variable daily=Load_shape_116 vminpu=0.5 vmaxpu=1.5
new load.hv_f0_lv28_f1_c7 phases=1 bus1=hv_f0_lv28_f1_c7.2.4 conn=w kv=0.23 kw=1 kvar=1 model=1 status=variable daily=Load_shape_48 vminpu=0.5 vmaxpu=1.5
new load.hv_f0_lv28_f1_c8 phases=1 bus1=hv_f0_lv28_f1_c8.3.4 conn=w kv=0.23 kw=1 kvar=1 model=1 status=variable daily=Load_shape_109 vminpu=0.5 vmaxpu=1.5
new load.hv_f0_lv28_f1_c9 phases=1 bus1=hv_f0_lv28_f1_c9.1.4 conn=w kv=0.23 kw=1 kvar=1 model=1 status=variable daily=Load_shape_179 vminpu=0.5 vmaxpu=1.5
new load.hv_f0_lv28_f1_c10 phases=1 bus1=hv_f0_lv28_f1_c10.2.4 conn=w kv=0.23 kw=1 kvar=1 model=1 status=variable daily=Load_shape_49 vminpu=0.5 vmaxpu=1.5
new load.hv_f0_lv28_f1_c11 phases=1 bus1=hv_f0_lv28_f1_c11.3.4 conn=w kv=0.23 kw=1 kvar=1 model=1 status=variable daily=Load_shape_71 vminpu=0.5 vmaxpu=1.5
new load.hv_f0_lv28_f1_c12 phases=1 bus1=hv_f0_lv28_f1_c12.1.4 conn=w kv=0.23 kw=1 kvar=1 model=1 status=variable daily=Load_shape_285 vminpu=0.5 vmaxpu=1.5
new load.hv_f0_lv28_f1_c13 phases=1 bus1=hv_f0_lv28_f1_c13.2.4 conn=w kv=0.23 kw=1 kvar=1 model=1 status=variable daily=Load_shape_3 vminpu=0.5 vmaxpu=1.5
new load.hv_f0_lv28_f1_c14 phases=1 bus1=hv_f0_lv28_f1_c14.3.4 conn=w kv=0.23 kw=1 kvar=1 model=1 status=variable daily=Load_shape_74 vminpu=0.5 vmaxpu=1.5
new load.hv_f0_lv28_f1_c15 phases=1 bus1=hv_f0_lv28_f1_c15.1.4 conn=w kv=0.23 kw=1 kvar=1 model=1 status=variable daily=Load_shape_84 vminpu=0.5 vmaxpu=1.5
new load.hv_f0_lv28_f1_c16 phases=1 bus1=hv_f0_lv28_f1_c16.2.4 conn=w kv=0.23 kw=1 kvar=1 model=1 status=variable daily=Load_shape_321 vminpu=0.5 vmaxpu=1.5
new load.hv_f0_lv28_f1_c17 phases=1 bus1=hv_f0_lv28_f1_c17.3.4 conn=w kv=0.23 kw=1 kvar=1 model=1 status=variable daily=Load_shape_20 vminpu=0.5 vmaxpu=1.5
new load.hv_f0_lv28_f1_c18 phases=1 bus1=hv_f0_lv28_f1_c18.1.4 conn=w kv=0.23 kw=1 kvar=1 model=1 status=variable daily=Load_shape_208 vminpu=0.5 vmaxpu=1.5
new load.hv_f0_lv28_f1_c19 phases=1 bus1=hv_f0_lv28_f1_c19.2.4 conn=w kv=0.23 kw=1 kvar=1 model=1 status=variable daily=Load_shape_42 vminpu=0.5 vmaxpu=1.5
new load.hv_f0_lv28_f1_c20 phases=1 bus1=hv_f0_lv28_f1_c20.3.4 conn=w kv=0.23 kw=1 kvar=1 model=1 status=variable daily=Load_shape_28 vminpu=0.5 vmaxpu=1.5
new load.hv_f0_lv28_f1_c21 phases=1 bus1=hv_f0_lv28_f1_c21.1.4 conn=w kv=0.23 kw=1 kvar=1 model=1 status=variable daily=Load_shape_180 vminpu=0.5 vmaxpu=1.5
new load.hv_f0_lv28_f1_c22 phases=1 bus1=hv_f0_lv28_f1_c22.2.4 conn=w kv=0.23 kw=1 kvar=1 model=1 status=variable daily=Load_shape_304 vminpu=0.5 vmaxpu=1.5
new load.hv_f0_lv28_f1_c23 phases=1 bus1=hv_f0_lv28_f1_c23.3.4 conn=w kv=0.23 kw=1 kvar=1 model=1 status=variable daily=Load_shape_102 vminpu=0.5 vmaxpu=1.5
new load.hv_f0_lv28_f1_c24 phases=1 bus1=hv_f0_lv28_f1_c24.1.4 conn=w kv=0.23 kw=1 kvar=1 model=1 status=variable daily=Load_shape_265 vminpu=0.5 vmaxpu=1.5
new load.hv_f0_lv28_f1_c25 phases=1 bus1=hv_f0_lv28_f1_c25.2.4 conn=w kv=0.23 kw=1 kvar=1 model=1 status=variable daily=Load_shape_258 vminpu=0.5 vmaxpu=1.5
new load.hv_f0_lv28_f1_c26 phases=1 bus1=hv_f0_lv28_f1_c26.3.4 conn=w kv=0.23 kw=1 kvar=1 model=1 status=variable daily=Load_shape_233 vminpu=0.5 vmaxpu=1.5
new load.hv_f0_lv28_f1_c27 phases=1 bus1=hv_f0_lv28_f1_c27.1.4 conn=w kv=0.23 kw=1 kvar=1 model=1 status=variable daily=Load_shape_100 vminpu=0.5 vmaxpu=1.5
new load.hv_f0_lv28_f1_c28 phases=1 bus1=hv_f0_lv28_f1_c28.2.4 conn=w kv=0.23 kw=1 kvar=1 model=1 status=variable daily=Load_shape_90 vminpu=0.5 vmaxpu=1.5
new load.hv_f0_lv28_f1_c29 phases=1 bus1=hv_f0_lv28_f1_c29.3.4 conn=w kv=0.23 kw=1 kvar=1 model=1 status=variable daily=Load_shape_68 vminpu=0.5 vmaxpu=1.5
new load.hv_f0_lv28_f1_c30 phases=1 bus1=hv_f0_lv28_f1_c30.1.4 conn=w kv=0.23 kw=1 kvar=1 model=1 status=variable daily=Load_shape_105 vminpu=0.5 vmaxpu=1.5
new load.hv_f0_lv28_f1_c31 phases=1 bus1=hv_f0_lv28_f1_c31.2.4 conn=w kv=0.23 kw=1 kvar=1 model=1 status=variable daily=Load_shape_10 vminpu=0.5 vmaxpu=1.5
new load.hv_f0_lv28_f1_c32 phases=1 bus1=hv_f0_lv28_f1_c32.3.4 conn=w kv=0.23 kw=1 kvar=1 model=1 status=variable daily=Load_shape_12 vminpu=0.5 vmaxpu=1.5
new load.hv_f0_lv28_f1_c33 phases=1 bus1=hv_f0_lv28_f1_c33.1.4 conn=w kv=0.23 kw=1 kvar=1 model=1 status=variable daily=Load_shape_104 vminpu=0.5 vmaxpu=1.5
new load.hv_f0_lv28_f1_c34 phases=1 bus1=hv_f0_lv28_f1_c34.2.4 conn=w kv=0.23 kw=1 kvar=1 model=1 status=variable daily=Load_shape_225 vminpu=0.5 vmaxpu=1.5
new load.hv_f0_lv28_f1_c35 phases=1 bus1=hv_f0_lv28_f1_c35.3.4 conn=w kv=0.23 kw=1 kvar=1 model=1 status=variable daily=Load_shape_167 vminpu=0.5 vmaxpu=1.5
new load.hv_f0_lv28_f1_c36 phases=1 bus1=hv_f0_lv28_f1_c36.1.4 conn=w kv=0.23 kw=1 kvar=1 model=1 status=variable daily=Load_shape_289 vminpu=0.5 vmaxpu=1.5
new load.hv_f0_lv28_f1_c37 phases=1 bus1=hv_f0_lv28_f1_c37.2.4 conn=w kv=0.23 kw=1 kvar=1 model=1 status=variable daily=Load_shape_99 vminpu=0.5 vmaxpu=1.5
new load.hv_f0_lv28_f1_c38 phases=1 bus1=hv_f0_lv28_f1_c38.3.4 conn=w kv=0.23 kw=1 kvar=1 model=1 status=variable daily=Load_shape_217 vminpu=0.5 vmaxpu=1.5
new load.hv_f0_lv28_f1_c39 phases=1 bus1=hv_f0_lv28_f1_c39.1.4 conn=w kv=0.23 kw=1 kvar=1 model=1 status=variable daily=Load_shape_306 vminpu=0.5 vmaxpu=1.5
new load.hv_f0_lv28_f2_c0 phases=1 bus1=hv_f0_lv28_f2_c0.1.4 conn=w kv=0.23 kw=1 kvar=1 model=1 status=variable daily=Load_shape_210 vminpu=0.5 vmaxpu=1.5
new load.hv_f0_lv28_f2_c1 phases=1 bus1=hv_f0_lv28_f2_c1.2.4 conn=w kv=0.23 kw=1 kvar=1 model=1 status=variable daily=Load_shape_276 vminpu=0.5 vmaxpu=1.5
new load.hv_f0_lv28_f2_c2 phases=1 bus1=hv_f0_lv28_f2_c2.3.4 conn=w kv=0.23 kw=1 kvar=1 model=1 status=variable daily=Load_shape_222 vminpu=0.5 vmaxpu=1.5
new load.hv_f0_lv28_f2_c3 phases=1 bus1=hv_f0_lv28_f2_c3.1.4 conn=w kv=0.23 kw=1 kvar=1 model=1 status=variable daily=Load_shape_156 vminpu=0.5 vmaxpu=1.5
new load.hv_f0_lv28_f2_c4 phases=1 bus1=hv_f0_lv28_f2_c4.2.4 conn=w kv=0.23 kw=1 kvar=1 model=1 status=variable daily=Load_shape_72 vminpu=0.5 vmaxpu=1.5
new load.hv_f0_lv28_f2_c5 phases=1 bus1=hv_f0_lv28_f2_c5.3.4 conn=w kv=0.23 kw=1 kvar=1 model=1 status=variable daily=Load_shape_274 vminpu=0.5 vmaxpu=1.5
new load.hv_f0_lv28_f2_c6 phases=1 bus1=hv_f0_lv28_f2_c6.1.4 conn=w kv=0.23 kw=1 kvar=1 model=1 status=variable daily=Load_shape_39 vminpu=0.5 vmaxpu=1.5
new load.hv_f0_lv28_f2_c7 phases=1 bus1=hv_f0_lv28_f2_c7.2.4 conn=w kv=0.23 kw=1 kvar=1 model=1 status=variable daily=Load_shape_234 vminpu=0.5 vmaxpu=1.5
new load.hv_f0_lv28_f2_c8 phases=1 bus1=hv_f0_lv28_f2_c8.3.4 conn=w kv=0.23 kw=1 kvar=1 model=1 status=variable daily=Load_shape_123 vminpu=0.5 vmaxpu=1.5
new load.hv_f0_lv28_f2_c9 phases=1 bus1=hv_f0_lv28_f2_c9.1.4 conn=w kv=0.23 kw=1 kvar=1 model=1 status=variable daily=Load_shape_284 vminpu=0.5 vmaxpu=1.5
new load.hv_f0_lv28_f2_c10 phases=1 bus1=hv_f0_lv28_f2_c10.2.4 conn=w kv=0.23 kw=1 kvar=1 model=1 status=variable daily=Load_shape_152 vminpu=0.5 vmaxpu=1.5
new load.hv_f0_lv28_f2_c11 phases=1 bus1=hv_f0_lv28_f2_c11.3.4 conn=w kv=0.23 kw=1 kvar=1 model=1 status=variable daily=Load_shape_146 vminpu=0.5 vmaxpu=1.5
new load.hv_f0_lv28_f2_c12 phases=1 bus1=hv_f0_lv28_f2_c12.1.4 conn=w kv=0.23 kw=1 kvar=1 model=1 status=variable daily=Load_shape_195 vminpu=0.5 vmaxpu=1.5
new load.hv_f0_lv28_f2_c13 phases=1 bus1=hv_f0_lv28_f2_c13.2.4 conn=w kv=0.23 kw=1 kvar=1 model=1 status=variable daily=Load_shape_172 vminpu=0.5 vmaxpu=1.5
new load.hv_f0_lv28_f2_c14 phases=1 bus1=hv_f0_lv28_f2_c14.3.4 conn=w kv=0.23 kw=1 kvar=1 model=1 status=variable daily=Load_shape_211 vminpu=0.5 vmaxpu=1.5
new load.hv_f0_lv28_f2_c15 phases=1 bus1=hv_f0_lv28_f2_c15.1.4 conn=w kv=0.23 kw=1 kvar=1 model=1 status=variable daily=Load_shape_301 vminpu=0.5 vmaxpu=1.5
new load.hv_f0_lv28_f2_c16 phases=1 bus1=hv_f0_lv28_f2_c16.2.4 conn=w kv=0.23 kw=1 kvar=1 model=1 status=variable daily=Load_shape_310 vminpu=0.5 vmaxpu=1.5
new load.hv_f0_lv28_f2_c17 phases=1 bus1=hv_f0_lv28_f2_c17.3.4 conn=w kv=0.23 kw=1 kvar=1 model=1 status=variable daily=Load_shape_0 vminpu=0.5 vmaxpu=1.5
new load.hv_f0_lv28_f2_c18 phases=1 bus1=hv_f0_lv28_f2_c18.1.4 conn=w kv=0.23 kw=1 kvar=1 model=1 status=variable daily=Load_shape_138 vminpu=0.5 vmaxpu=1.5
new load.hv_f0_lv28_f2_c19 phases=1 bus1=hv_f0_lv28_f2_c19.2.4 conn=w kv=0.23 kw=1 kvar=1 model=1 status=variable daily=Load_shape_195 vminpu=0.5 vmaxpu=1.5
new load.hv_f0_lv28_f2_c20 phases=1 bus1=hv_f0_lv28_f2_c20.3.4 conn=w kv=0.23 kw=1 kvar=1 model=1 status=variable daily=Load_shape_219 vminpu=0.5 vmaxpu=1.5
new load.hv_f0_lv28_f2_c21 phases=1 bus1=hv_f0_lv28_f2_c21.1.4 conn=w kv=0.23 kw=1 kvar=1 model=1 status=variable daily=Load_shape_162 vminpu=0.5 vmaxpu=1.5
new load.hv_f0_lv28_f2_c22 phases=1 bus1=hv_f0_lv28_f2_c22.2.4 conn=w kv=0.23 kw=1 kvar=1 model=1 status=variable daily=Load_shape_50 vminpu=0.5 vmaxpu=1.5
new load.hv_f0_lv28_f2_c23 phases=1 bus1=hv_f0_lv28_f2_c23.3.4 conn=w kv=0.23 kw=1 kvar=1 model=1 status=variable daily=Load_shape_242 vminpu=0.5 vmaxpu=1.5
new load.hv_f0_lv28_f2_c24 phases=1 bus1=hv_f0_lv28_f2_c24.1.4 conn=w kv=0.23 kw=1 kvar=1 model=1 status=variable daily=Load_shape_20 vminpu=0.5 vmaxpu=1.5
new load.hv_f0_lv28_f2_c25 phases=1 bus1=hv_f0_lv28_f2_c25.2.4 conn=w kv=0.23 kw=1 kvar=1 model=1 status=variable daily=Load_shape_171 vminpu=0.5 vmaxpu=1.5
new load.hv_f0_lv28_f2_c26 phases=1 bus1=hv_f0_lv28_f2_c26.3.4 conn=w kv=0.23 kw=1 kvar=1 model=1 status=variable daily=Load_shape_118 vminpu=0.5 vmaxpu=1.5
new load.hv_f0_lv28_f2_c27 phases=1 bus1=hv_f0_lv28_f2_c27.1.4 conn=w kv=0.23 kw=1 kvar=1 model=1 status=variable daily=Load_shape_128 vminpu=0.5 vmaxpu=1.5
new load.hv_f0_lv28_f2_c28 phases=1 bus1=hv_f0_lv28_f2_c28.2.4 conn=w kv=0.23 kw=1 kvar=1 model=1 status=variable daily=Load_shape_105 vminpu=0.5 vmaxpu=1.5
new load.hv_f0_lv28_f2_c29 phases=1 bus1=hv_f0_lv28_f2_c29.3.4 conn=w kv=0.23 kw=1 kvar=1 model=1 status=variable daily=Load_shape_194 vminpu=0.5 vmaxpu=1.5
new load.hv_f0_lv28_f2_c30 phases=1 bus1=hv_f0_lv28_f2_c30.1.4 conn=w kv=0.23 kw=1 kvar=1 model=1 status=variable daily=Load_shape_225 vminpu=0.5 vmaxpu=1.5
new load.hv_f0_lv28_f2_c31 phases=1 bus1=hv_f0_lv28_f2_c31.2.4 conn=w kv=0.23 kw=1 kvar=1 model=1 status=variable daily=Load_shape_140 vminpu=0.5 vmaxpu=1.5
new load.hv_f0_lv28_f2_c32 phases=1 bus1=hv_f0_lv28_f2_c32.3.4 conn=w kv=0.23 kw=1 kvar=1 model=1 status=variable daily=Load_shape_271 vminpu=0.5 vmaxpu=1.5
new load.hv_f0_lv28_f2_c33 phases=1 bus1=hv_f0_lv28_f2_c33.1.4 conn=w kv=0.23 kw=1 kvar=1 model=1 status=variable daily=Load_shape_118 vminpu=0.5 vmaxpu=1.5